syntax_test_OpenDSS.dss
// SYNTAX TEST "OpenDSS.sublime-syntax"


// OpenDSSManual.pdf, Command Reference page 69
//<- punctuation.definition.comment.opendss
//^^^ comment.line.opendss

/* comment out the next two monitors
//<- punctuation.definition.comment.begin.opendss
// ^^^^ comment.block.opendss
****/ End of block comment
// ^^ punctuation.definition.comment.end.opendss
//   ^^^^ comment.block.opendss


Var @Input=MyBus1
//<- keyword.var.opendss
//  ^ punctuation.definition.variable.opendss
//   ^^ variable.opendss
//        ^ keyword.operator.opendss
//^^^^^^^^^^^^^^^ meta.var.opendss

Var @Input=MyBus1  @Output=test
//^ keyword.var.opendss
//                 ^ punctuation.definition.variable.opendss
//                  ^^ variable.opendss

var @varname1
//<- keyword.var.opendss
//  ^ punctuation.definition.variable.opendss
//   ^^ entity.name.variable.opendss

var
//<- keyword.var.opendss

New Reactor.@Jumper^1 Phases=1 Bus1=@Input.4 Bus2=@Input.23 R=0 X=0.01
//                                  ^ punctuation.definition.variable.opendss
//                                        ^ punctuation.definition.variable.opendss


Clear
//<- keyword.command.opendss
Connect
//<- keyword.command.opendss
_DoControlActions
//<- punctuation.keyword.opendss
// ^ keyword.command.opendss


New line.line4 linecode=336acsr length=2.0 ! this is an in-line comment
//                                         ^ punctuation.definition.comment.opendss
//                                          ^^^ comment.line.opendss

? XYCurve.MyPvsT.Y
//<- punctuation.query.opendss
// ^^^^ string.unquoted.opendss


New line.line4 linecode=336acsr
More length=2.0
//^ punctuation.more.opendss


New XYCurve.MyEff npts=4 xarray=[.1 .2 .4 1.0] yarray=[.86 .9 .93 .97]
//<- punctuation.new.opendss


New abc test=[1]
//           ^punctuation.group.brackets.begin
//             ^punctuation.group.brackets.end

New abc test=[1,2,3]
//           ^punctuation.group.brackets.begin
//                 ^punctuation.group.brackets.end

New abc test='1,2,3'
//           ^punctuation.group.single.begin
//                 ^punctuation.group.single.end

New abc test="1,2,3"
//           ^punctuation.group.double.begin
//                 ^punctuation.group.double.end

New abc test={1,2,3}
//           ^punctuation.group.braces.begin
//                 ^punctuation.group.braces.end

New abc test=(1,2,3 | 4, 5, 6 | 7, 8, 9)
//           ^ punctuation.group.parens.begin
//                                     ^ punctuation.group.parens.end

New test.abc kvs="24.9 sqrt"
//                    ^ meta.rpn.opendss
//                 ^ constant.numeric.opendss

New test.abc kvs=("24.9 -")

New test.abc kvs=("24.9 sqrt 10 +")

New Transformer.t kvs=("24.9 3 sqrt /" "10 2 *") test=(14.4 13.8 / sqr 300 *)
//                             ^ meta.rpn.opendss
//                                  ^ keyword.operator.opendss
//                                                          ^ meta.rpn.opendss


New abc test=[file=abcd.csv, Column=0, Header=Yes]
New abc test=[dblfile=abcd.dbl]
New abc test=[sngfile=abcd.sng]

New abc test=[1 2 3]


New test=(1,2,3 | 4, 5, 6 | 7, 8, 9)
//       ^ punctuation.group.parens.begin
//                                 ^ punctuation.group.parens.end

New test=[file=abcd.csv, Column=0, Header=Yes]
New test=[dblfile=abcd.dbl]
New test=[sngfile=abcd.sng]

New test=[1 2 3]

